/*--------------------------------*- C++ -*----------------------------------*\
| =========                 |                                                 |
| \\      /  F ield         | OpenFOAM: The Open Source CFD Toolbox           |
|  \\    /   O peration     | Version:  2.1.x                                 |
|   \\  /    A nd           | Web:      www.OpenFOAM.org                      |
|    \\/     M anipulation  |                                                 |
\*---------------------------------------------------------------------------*/
FoamFile
{
    version     2.0;
    format      ascii;
    class       volVectorField;
    location    "0";
    object      U;
}
// * * * * * * * * * * * * * * * * * * * * * * * * * * * * * * * * * * * * * //

dimensions      [0 1 -1 0 0 0 0];

internalField   uniform (0 0.3 0);

boundaryField
{
    inletfuel           
    {
	type 		fixedValue;
        value           uniform (0 63.2 0);
    }
    inletair           
    {
	type 		fixedValue;
        value           uniform (0 0.3 0);
    }

    outlet          
    {
	type 		zeroGradient;
	value		uniform (0 0.3 0);
    }

    sidewall       
    {
	type 		zeroGradient;
	value		uniform (0 0.3 0);
    }

    burnerwall      
    {
        type            fixedValue;
        value           uniform (0 0 0);
    }

    front
    {
        type            wedge;
    }

    back
    {
        type            wedge;
    }

    axis
    {
        type            empty;
    }
}


// ************************************************************************* //
